<?xml version="1.0" encoding="utf-8"?>
<!DOCTYPE population SYSTEM "http://www.matsim.org/files/dtd/population_v6.dtd">

<population>



<!-- ====================================================================== -->

	<person id="10020">
		<plan selected="yes">
			<activity type="loaded" x="607424.3947786563" y="5926545.090046597" end_time="191:55:36" >
			</activity>
			<leg mode="car">
			</leg>
			<activity type="loaded" x="608655.4015974042" y="6142003.759783918" >
			</activity>
		</plan>

	</person>

<!-- ====================================================================== -->

	<person id="100231">
		<plan selected="yes">
			<activity type="unloaded" x="376993.70771807164" y="5844118.594716983" end_time="49:13:12" >
			</activity>
			<leg mode="car">
			</leg>
			<activity type="unloaded" x="586871.3123764457" y="5543882.393836116" >
			</activity>
		</plan>

	</person>

<!-- ====================================================================== -->

	<person id="100239">
		<plan selected="yes">
			<activity type="unloaded" x="382374.8976748885" y="5847280.091517167" end_time="97:40:00" >
			</activity>
			<leg mode="car">
			</leg>
			<activity type="unloaded" x="505443.31028189405" y="5534258.712004277" >
			</activity>
		</plan>

	</person>

<!-- ====================================================================== -->

	<person id="100418">
		<plan selected="yes">
			<activity type="loaded" x="383355.5291182362" y="5837436.987660579" end_time="43:09:00" >
			</activity>
			<leg mode="car">
			</leg>
			<activity type="loaded" x="807093.0318431228" y="5847200.785536117" >
			</activity>
		</plan>

	</person>

<!-- ====================================================================== -->

	<person id="100482">
		<plan selected="yes">
			<activity type="loaded" x="404549.6728222574" y="5833161.814123279" end_time="102:11:12" >
			</activity>
			<leg mode="car">
			</leg>
			<activity type="loaded" x="849852.483688391" y="5829265.158776522" >
			</activity>
		</plan>

	</person>

<!-- ====================================================================== -->

	<person id="100574">
		<plan selected="yes">
			<activity type="loaded" x="384202.86572908773" y="5848876.102394384" end_time="84:55:36" >
			</activity>
			<leg mode="car">
			</leg>
			<activity type="loaded" x="785207.1303078342" y="5841209.555799045" >
			</activity>
		</plan>

	</person>

<!-- ====================================================================== -->

	<person id="100720">
		<plan selected="yes">
			<activity type="loaded" x="405794.8650882556" y="5853509.965728272" end_time="122:58:12" >
			</activity>
			<leg mode="car">
			</leg>
			<activity type="loaded" x="769643.0434570869" y="5789821.450642799" >
			</activity>
		</plan>

	</person>

<!-- ====================================================================== -->

	<person id="100918">
		<plan selected="yes">
			<activity type="loaded" x="407965.84587962076" y="5856761.829450821" end_time="110:18:12" >
			</activity>
			<leg mode="car">
			</leg>
			<activity type="loaded" x="744073.539135603" y="5911849.44848206" >
			</activity>
		</plan>

	</person>

<!-- ====================================================================== -->

	<person id="101232">
		<plan selected="yes">
			<activity type="loaded" x="381454.8815089087" y="5802002.48522832" end_time="61:53:48" >
			</activity>
			<leg mode="car">
			</leg>
			<activity type="loaded" x="675744.5666767927" y="5769864.304103303" >
			</activity>
		</plan>

	</person>

<!-- ====================================================================== -->

	<person id="101273">
		<plan selected="yes">
			<activity type="loaded" x="391322.4432157932" y="5883425.186359034" end_time="56:53:12" >
			</activity>
			<leg mode="car">
			</leg>
			<activity type="loaded" x="646872.6151865486" y="5736068.381365932" >
			</activity>
		</plan>

	</person>

<!-- ====================================================================== -->

	<person id="101308">
		<plan selected="yes">
			<activity type="loaded" x="371123.6145869054" y="5834256.179046035" end_time="97:05:12" >
			</activity>
			<leg mode="car">
			</leg>
			<activity type="loaded" x="699879.9674140873" y="5686573.445460171" >
			</activity>
		</plan>

	</person>

<!-- ====================================================================== -->

	<person id="101330">
		<plan selected="yes">
			<activity type="loaded" x="401643.7522495239" y="5841575.195699488" end_time="31:11:12" >
			</activity>
			<leg mode="car">
			</leg>
			<activity type="loaded" x="715051.1324634714" y="5698805.877896554" >
			</activity>
		</plan>

	</person>

<!-- ====================================================================== -->

	<person id="101593">
		<plan selected="yes">
			<activity type="loaded" x="418358.6744503346" y="5860666.9085228285" end_time="58:43:36" >
			</activity>
			<leg mode="car">
			</leg>
			<activity type="loaded" x="683575.137630267" y="5617487.9311209945" >
			</activity>
		</plan>

	</person>

<!-- ====================================================================== -->

	<person id="101613">
		<plan selected="yes">
			<activity type="loaded" x="388718.6270657621" y="5831160.533533591" end_time="112:30:00" >
			</activity>
			<leg mode="car">
			</leg>
			<activity type="loaded" x="699175.8570116091" y="5609114.041898098" >
			</activity>
		</plan>

	</person>

<!-- ====================================================================== -->

	<person id="101627">
		<plan selected="yes">
			<activity type="loaded" x="405849.70393923356" y="5853585.8205998195" end_time="63:39:36" >
			</activity>
			<leg mode="car">
			</leg>
			<activity type="loaded" x="730819.2782675483" y="5660121.298826449" >
			</activity>
		</plan>

	</person>

<!-- ====================================================================== -->

	<person id="101638">
		<plan selected="yes">
			<activity type="loaded" x="375231.2033685623" y="5835583.356735044" end_time="155:50:24" >
			</activity>
			<leg mode="car">
			</leg>
			<activity type="loaded" x="482749.7548309097" y="6166367.660776426" >
			</activity>
		</plan>

	</person>

<!-- ====================================================================== -->

	<person id="101643">
		<plan selected="yes">
			<activity type="loaded" x="400637.2300898716" y="5841276.315545436" end_time="75:34:36" >
			</activity>
			<leg mode="car">
			</leg>
			<activity type="loaded" x="509412.85997097363" y="6099031.538515383" >
			</activity>
		</plan>

	</person>

<!-- ====================================================================== -->

	<person id="101746">
		<plan selected="yes">
			<activity type="loaded" x="389637.3152616084" y="5831544.924887964" end_time="103:41:00" >
			</activity>
			<leg mode="car">
			</leg>
			<activity type="loaded" x="562844.0839651045" y="6314916.563163736" >
			</activity>
		</plan>

	</person>

<!-- ====================================================================== -->

	<person id="102203">
		<plan selected="yes">
			<activity type="loaded" x="397881.6451759102" y="5810786.843985439" end_time="81:45:00" >
			</activity>
			<leg mode="car">
			</leg>
			<activity type="loaded" x="269455.9499370671" y="5503177.074457063" >
			</activity>
		</plan>

	</person>

<!-- ====================================================================== -->

	<person id="102302">
		<plan selected="yes">
			<activity type="unloaded" x="411836.4256242175" y="5866669.541310566" end_time="28:29:36" >
			</activity>
			<leg mode="car">
			</leg>
			<activity type="unloaded" x="99100.66938484402" y="5555257.198366466" >
			</activity>
		</plan>

	</person>

<!-- ====================================================================== -->

	<person id="102304">
		<plan selected="yes">
			<activity type="loaded" x="382735.25959924667" y="5847642.791899178" end_time="02:59:47" >
			</activity>
			<leg mode="car">
			</leg>
			<activity type="loaded" x="-134372.6944535605" y="4872370.825224782" >
			</activity>
		</plan>

	</person>

<!-- ====================================================================== -->

	<person id="102307">
		<plan selected="yes">
			<activity type="loaded" x="400528.4384649182" y="5842476.787724408" end_time="190:57:36" >
			</activity>
			<leg mode="car">
			</leg>
			<activity type="loaded" x="-11142.977801227942" y="4764114.373842186" >
			</activity>
		</plan>

	</person>

<!-- ====================================================================== -->

	<person id="102339">
		<plan selected="yes">
			<activity type="loaded" x="369538.7750121965" y="5835633.1848009275" end_time="50:25:00" >
			</activity>
			<leg mode="car">
			</leg>
			<activity type="loaded" x="197790.71052177716" y="5407377.391258801" >
			</activity>
		</plan>

	</person>

<!-- ====================================================================== -->

	<person id="102344">
		<plan selected="yes">
			<activity type="loaded" x="404118.5136196359" y="5845854.397469264" end_time="262:02:48" >
			</activity>
			<leg mode="car">
			</leg>
			<activity type="loaded" x="245201.99771627277" y="4800046.570326017" >
			</activity>
		</plan>

	</person>

<!-- ====================================================================== -->

	<person id="102475">
		<plan selected="yes">
			<activity type="unloaded" x="369679.5485673312" y="5843139.359211273" end_time="14:26:36" >
			</activity>
			<leg mode="car">
			</leg>
			<activity type="unloaded" x="383958.5702187483" y="5155544.467436983" >
			</activity>
		</plan>

	</person>

<!-- ====================================================================== -->

	<person id="102528">
		<plan selected="yes">
			<activity type="unloaded" x="389532.2953172782" y="5832119.359693677" end_time="77:21:36" >
			</activity>
			<leg mode="car">
			</leg>
			<activity type="unloaded" x="916971.0120565568" y="5376562.201160129" >
			</activity>
		</plan>

	</person>

<!-- ====================================================================== -->

	<person id="102554">
		<plan selected="yes">
			<activity type="loaded" x="377651.5148155572" y="5840279.918742521" end_time="37:45:36" >
			</activity>
			<leg mode="car">
			</leg>
			<activity type="loaded" x="845424.3764475696" y="5356089.923249644" >
			</activity>
		</plan>

	</person>

<!-- ====================================================================== -->

	<person id="102664">
		<plan selected="yes">
			<activity type="loaded" x="387259.119343667" y="5831004.597291406" end_time="03:12:36" >
			</activity>
			<leg mode="car">
			</leg>
			<activity type="loaded" x="997034.6407469191" y="4633490.613728536" >
			</activity>
		</plan>

	</person>

<!-- ====================================================================== -->

	<person id="102759">
		<plan selected="yes">
			<activity type="unloaded" x="400143.236079766" y="5829212.116411889" end_time="07:16:00" >
			</activity>
			<leg mode="car">
			</leg>
			<activity type="unloaded" x="1333814.5149030294" y="5376021.314477751" >
			</activity>
		</plan>

	</person>

<!-- ====================================================================== -->

	<person id="102947">
		<plan selected="yes">
			<activity type="unloaded" x="386925.044027632" y="5830432.181702842" end_time="90:02:36" >
			</activity>
			<leg mode="car">
			</leg>
			<activity type="unloaded" x="868971.7389295066" y="5936205.95882618" >
			</activity>
		</plan>

	</person>

<!-- ====================================================================== -->

	<person id="10299">
		<plan selected="yes">
			<activity type="loaded" x="607625.9615933693" y="5927147.971010281" end_time="137:22:36" >
			</activity>
			<leg mode="car">
			</leg>
			<activity type="loaded" x="1474675.2287859463" y="5687229.423798796" >
			</activity>
		</plan>

	</person>

<!-- ====================================================================== -->

	<person id="103121">
		<plan selected="yes">
			<activity type="loaded" x="404041.2041130902" y="5846037.098000469" end_time="57:44:12" >
			</activity>
			<leg mode="car">
			</leg>
			<activity type="loaded" x="1035781.8378386413" y="5886649.781613817" >
			</activity>
		</plan>

	</person>

<!-- ====================================================================== -->

	<person id="103133">
		<plan selected="yes">
			<activity type="loaded" x="386707.3041866453" y="5831409.772785889" end_time="38:52:12" >
			</activity>
			<leg mode="car">
			</leg>
			<activity type="loaded" x="1447994.377497922" y="5653027.654510182" >
			</activity>
		</plan>

	</person>

<!-- ====================================================================== -->

	<person id="103147">
		<plan selected="yes">
			<activity type="unloaded" x="400391.69725836173" y="5857445.82882095" end_time="157:23:48" >
			</activity>
			<leg mode="car">
			</leg>
			<activity type="unloaded" x="1036921.4250639923" y="6047164.689935307" >
			</activity>
		</plan>

	</person>

<!-- ====================================================================== -->

	<person id="103299">
		<plan selected="yes">
			<activity type="loaded" x="437047.0553112044" y="5921122.560330846" end_time="73:38:00" >
			</activity>
			<leg mode="car">
			</leg>
			<activity type="loaded" x="494381.6264581406" y="5984296.426524146" >
			</activity>
		</plan>

	</person>

<!-- ====================================================================== -->

	<person id="103512">
		<plan selected="yes">
			<activity type="unloaded" x="433013.67212322296" y="5913423.132048627" end_time="111:47:48" >
			</activity>
			<leg mode="car">
			</leg>
			<activity type="unloaded" x="316509.4712936081" y="5685750.020111369" >
			</activity>
		</plan>

	</person>

<!-- ====================================================================== -->

	<person id="103684">
		<plan selected="yes">
			<activity type="unloaded" x="430002.2624099508" y="5917404.707228187" end_time="56:19:36" >
			</activity>
			<leg mode="car">
			</leg>
			<activity type="unloaded" x="450609.2129405836" y="5625939.043016662" >
			</activity>
		</plan>

	</person>

<!-- ====================================================================== -->

	<person id="10377">
		<plan selected="yes">
			<activity type="unloaded" x="502056.9351819532" y="6050752.518967233" end_time="28:52:12" >
			</activity>
			<leg mode="car">
			</leg>
			<activity type="unloaded" x="433846.4024221773" y="5787228.068059516" >
			</activity>
		</plan>

	</person>

<!-- ====================================================================== -->

	<person id="103888">
		<plan selected="yes">
			<activity type="loaded" x="437310.94680040976" y="5913621.228685093" end_time="102:41:12" >
			</activity>
			<leg mode="car">
			</leg>
			<activity type="loaded" x="624564.1322455815" y="5533085.897535703" >
			</activity>
		</plan>

	</person>

<!-- ====================================================================== -->

	<person id="103960">
		<plan selected="yes">
			<activity type="loaded" x="441452.11025571276" y="5912738.344146802" end_time="38:23:12" >
			</activity>
			<leg mode="car">
			</leg>
			<activity type="loaded" x="652266.479955118" y="5478907.152214664" >
			</activity>
		</plan>

	</person>

<!-- ====================================================================== -->

	<person id="10403">
		<plan selected="yes">
			<activity type="loaded" x="508242.97677226295" y="6032969.202607584" end_time="102:46:24" >
			</activity>
			<leg mode="car">
			</leg>
			<activity type="loaded" x="380436.3031574482" y="5859097.162448363" >
			</activity>
		</plan>

	</person>

<!-- ====================================================================== -->

	<person id="104217">
		<plan selected="yes">
			<activity type="loaded" x="444958.62201948185" y="5917890.144583428" end_time="80:10:36" >
			</activity>
			<leg mode="car">
			</leg>
			<activity type="loaded" x="884019.9138560834" y="5670162.059379838" >
			</activity>
		</plan>

	</person>

<!-- ====================================================================== -->

	<person id="104218">
		<plan selected="yes">
			<activity type="loaded" x="426981.3487558283" y="5960597.357191885" end_time="121:36:00" >
			</activity>
			<leg mode="car">
			</leg>
			<activity type="loaded" x="873939.1809352662" y="5671679.25056685" >
			</activity>
		</plan>

	</person>

<!-- ====================================================================== -->

	<person id="104219">
		<plan selected="yes">
			<activity type="unloaded" x="433369.671124214" y="5917224.423516227" end_time="192:12:36" >
			</activity>
			<leg mode="car">
			</leg>
			<activity type="unloaded" x="864042.5340268768" y="5674529.65334972" >
			</activity>
		</plan>

	</person>

<!-- ====================================================================== -->

	<person id="104323">
		<plan selected="yes">
			<activity type="loaded" x="443959.31503531005" y="5917772.076756447" end_time="35:35:00" >
			</activity>
			<leg mode="car">
			</leg>
			<activity type="loaded" x="640235.9529668534" y="5606154.866537513" >
			</activity>
		</plan>

	</person>

<!-- ====================================================================== -->

	<person id="104340">
		<plan selected="yes">
			<activity type="unloaded" x="426981.3487558283" y="5960597.357191885" end_time="17:08:23" >
			</activity>
			<leg mode="car">
			</leg>
			<activity type="unloaded" x="637060.6375479148" y="5634441.8518026825" >
			</activity>
		</plan>

	</person>

<!-- ====================================================================== -->

	<person id="104488">
		<plan selected="yes">
			<activity type="loaded" x="433736.4392711354" y="5930649.936971426" end_time="101:47:00" >
			</activity>
			<leg mode="car">
			</leg>
			<activity type="loaded" x="118308.7595231299" y="5430452.32103557" >
			</activity>
		</plan>

	</person>

<!-- ====================================================================== -->

	<person id="104497">
		<plan selected="yes">
			<activity type="loaded" x="434442.070376199" y="5950167.795382161" end_time="42:24:48" >
			</activity>
			<leg mode="car">
			</leg>
			<activity type="loaded" x="-190258.39961136796" y="5251594.57689379" >
			</activity>
		</plan>

	</person>

<!-- ====================================================================== -->

	<person id="104541">
		<plan selected="yes">
			<activity type="loaded" x="441586.0560611306" y="5912405.232373463" end_time="31:12:24" >
			</activity>
			<leg mode="car">
			</leg>
			<activity type="loaded" x="1818727.4927691997" y="4972821.002018637" >
			</activity>
		</plan>

	</person>

<!-- ====================================================================== -->

	<person id="104567">
		<plan selected="yes">
			<activity type="loaded" x="437617.58814775164" y="5913402.24066284" end_time="129:09:48" >
			</activity>
			<leg mode="car">
			</leg>
			<activity type="loaded" x="1098058.1304196066" y="6070634.72818579" >
			</activity>
		</plan>

	</person>

<!-- ====================================================================== -->

	<person id="10469">
		<plan selected="yes">
			<activity type="unloaded" x="505124.2072725871" y="6036814.270292899" end_time="75:07:48" >
			</activity>
			<leg mode="car">
			</leg>
			<activity type="unloaded" x="323626.50001190836" y="5688229.637168059" >
			</activity>
		</plan>

	</person>

<!-- ====================================================================== -->

	<person id="104697">
		<plan selected="yes">
			<activity type="unloaded" x="366867.3060768832" y="5829723.251252601" end_time="128:41:48" >
			</activity>
			<leg mode="car">
			</leg>
			<activity type="unloaded" x="509080.0624936817" y="5983520.740288777" >
			</activity>
		</plan>

	</person>

<!-- ====================================================================== -->

	<person id="104788">
		<plan selected="yes">
			<activity type="loaded" x="375421.0604705096" y="5792381.334581024" end_time="111:04:12" >
			</activity>
			<leg mode="car">
			</leg>
			<activity type="loaded" x="462277.21994649206" y="5518284.398689953" >
			</activity>
		</plan>

	</person>

<!-- ====================================================================== -->

	<person id="104930">
		<plan selected="yes">
			<activity type="loaded" x="363735.93885759683" y="5827526.609321703" end_time="07:00:24" >
			</activity>
			<leg mode="car">
			</leg>
			<activity type="loaded" x="515765.41193033586" y="5442266.604036226" >
			</activity>
		</plan>

	</person>

<!-- ====================================================================== -->

	<person id="105094">
		<plan selected="yes">
			<activity type="loaded" x="362968.6933574107" y="5825185.352016162" end_time="14:35:24" >
			</activity>
			<leg mode="car">
			</leg>
			<activity type="loaded" x="510604.5839305823" y="5516347.1792926155" >
			</activity>
		</plan>

	</person>

<!-- ====================================================================== -->

	<person id="105201">
		<plan selected="yes">
			<activity type="unloaded" x="368652.8848911165" y="5822593.535119083" end_time="215:27:00" >
			</activity>
			<leg mode="car">
			</leg>
			<activity type="unloaded" x="647218.5286055903" y="5924166.315181022" >
			</activity>
		</plan>

	</person>

<!-- ====================================================================== -->

	<person id="105252">
		<plan selected="yes">
			<activity type="unloaded" x="362722.97312026285" y="5825662.121919578" end_time="29:09:48" >
			</activity>
			<leg mode="car">
			</leg>
			<activity type="unloaded" x="639798.7155411693" y="5843213.353839681" >
			</activity>
		</plan>

	</person>

<!-- ====================================================================== -->

	<person id="105329">
		<plan selected="yes">
			<activity type="loaded" x="356801.3946203778" y="5834998.086881077" end_time="104:08:36" >
			</activity>
			<leg mode="car">
			</leg>
			<activity type="loaded" x="761702.9946927712" y="6843471.924380388" >
			</activity>
		</plan>

	</person>

<!-- ====================================================================== -->

	<person id="105357">
		<plan selected="yes">
			<activity type="loaded" x="355870.37565864495" y="5835499.9980607275" end_time="68:37:12" >
			</activity>
			<leg mode="car">
			</leg>
			<activity type="loaded" x="248357.11028967044" y="5532442.609050206" >
			</activity>
		</plan>

	</person>

<!-- ====================================================================== -->

	<person id="105439">
		<plan selected="yes">
			<activity type="unloaded" x="364181.3150283826" y="5826876.426128167" end_time="115:31:00" >
			</activity>
			<leg mode="car">
			</leg>
			<activity type="unloaded" x="-490516.0106306536" y="6126885.987389513" >
			</activity>
		</plan>

	</person>

<!-- ====================================================================== -->

	<person id="105803">
		<plan selected="yes">
			<activity type="loaded" x="357240.91856612125" y="5835449.87816776" end_time="110:31:36" >
			</activity>
			<leg mode="car">
			</leg>
			<activity type="loaded" x="1368878.8441150328" y="5982699.8242272595" >
			</activity>
		</plan>

	</person>

<!-- ====================================================================== -->

	<person id="105834">
		<plan selected="yes">
			<activity type="unloaded" x="380640.4197453922" y="5799237.856631874" end_time="156:13:12" >
			</activity>
			<leg mode="car">
			</leg>
			<activity type="unloaded" x="1266913.9727957144" y="5686026.604450695" >
			</activity>
		</plan>

	</person>

<!-- ====================================================================== -->

	<person id="105851">
		<plan selected="yes">
			<activity type="loaded" x="355092.56449800474" y="5834923.552972986" end_time="75:39:24" >
			</activity>
			<leg mode="car">
			</leg>
			<activity type="loaded" x="1268772.3364408514" y="5634446.368984551" >
			</activity>
		</plan>

	</person>

<!-- ====================================================================== -->

	<person id="105920">
		<plan selected="yes">
			<activity type="loaded" x="353906.9647210306" y="5835618.907369504" end_time="43:34:36" >
			</activity>
			<leg mode="car">
			</leg>
			<activity type="loaded" x="1013199.7735728071" y="5825219.516231269" >
			</activity>
		</plan>

	</person>

<!-- ====================================================================== -->

	<person id="105968">
		<plan selected="yes">
			<activity type="loaded" x="368328.13288830756" y="5824406.724719914" end_time="26:59:24" >
			</activity>
			<leg mode="car">
			</leg>
			<activity type="loaded" x="991074.3286625552" y="6029955.283732268" >
			</activity>
		</plan>

	</person>

<!-- ====================================================================== -->

	<person id="106136">
		<plan selected="yes">
			<activity type="loaded" x="414928.0908404483" y="5905164.667782059" end_time="134:06:48" >
			</activity>
			<leg mode="car">
			</leg>
			<activity type="loaded" x="300634.9044396109" y="5631244.306229615" >
			</activity>
		</plan>

	</person>

<!-- ====================================================================== -->

	<person id="106226">
		<plan selected="yes">
			<activity type="unloaded" x="389431.05560775136" y="5909840.640261368" end_time="191:56:00" >
			</activity>
			<leg mode="car">
			</leg>
			<activity type="unloaded" x="507436.18758518336" y="5416645.640246037" >
			</activity>
		</plan>

	</person>

<!-- ====================================================================== -->

	<person id="106396">
		<plan selected="yes">
			<activity type="loaded" x="417004.9535722687" y="5902513.619673297" end_time="155:16:00" >
			</activity>
			<leg mode="car">
			</leg>
			<activity type="loaded" x="734449.6188490186" y="5962837.447790857" >
			</activity>
		</plan>

	</person>

<!-- ====================================================================== -->

	<person id="106398">
		<plan selected="yes">
			<activity type="unloaded" x="411122.116726198" y="5896864.428145376" end_time="04:19:36" >
			</activity>
			<leg mode="car">
			</leg>
			<activity type="unloaded" x="710798.8543291881" y="5966781.0912452545" >
			</activity>
		</plan>

	</person>

<!-- ====================================================================== -->

	<person id="106607">
		<plan selected="yes">
			<activity type="loaded" x="399532.17920651974" y="5892643.316712442" end_time="75:44:36" >
			</activity>
			<leg mode="car">
			</leg>
			<activity type="loaded" x="281964.78331509954" y="5631075.542816874" >
			</activity>
		</plan>

	</person>

<!-- ====================================================================== -->

	<person id="106635">
		<plan selected="yes">
			<activity type="loaded" x="417004.9535722687" y="5902513.619673297" end_time="03:07:24" >
			</activity>
			<leg mode="car">
			</leg>
			<activity type="loaded" x="292765.34598057554" y="5755625.734453686" >
			</activity>
		</plan>

	</person>

<!-- ====================================================================== -->

	<person id="106745">
		<plan selected="yes">
			<activity type="loaded" x="413024.598856072" y="5911086.161957212" end_time="44:31:24" >
			</activity>
			<leg mode="car">
			</leg>
			<activity type="loaded" x="-64685.95203258714" y="4833939.922012158" >
			</activity>
		</plan>

	</person>

<!-- ====================================================================== -->

	<person id="106837">
		<plan selected="yes">
			<activity type="unloaded" x="413024.598856072" y="5911086.161957212" end_time="12:58:48" >
			</activity>
			<leg mode="car">
			</leg>
			<activity type="unloaded" x="1933919.5397685089" y="5141916.057107812" >
			</activity>
		</plan>

	</person>

<!-- ====================================================================== -->

	<person id="106914">
		<plan selected="yes">
			<activity type="loaded" x="456401.8545402163" y="5875215.806759627" end_time="37:17:24" >
			</activity>
			<leg mode="car">
			</leg>
			<activity type="loaded" x="307133.93314778514" y="5643162.1746717775" >
			</activity>
		</plan>

	</person>

<!-- ====================================================================== -->

	<person id="107004">
		<plan selected="yes">
			<activity type="loaded" x="448636.090950405" y="5862592.437556944" end_time="10:15:24" >
			</activity>
			<leg mode="car">
			</leg>
			<activity type="loaded" x="462917.7161068682" y="5545783.181604411" >
			</activity>
		</plan>

	</person>

<!-- ====================================================================== -->

	<person id="107042">
		<plan selected="yes">
			<activity type="loaded" x="442323.69130821165" y="5880881.578458904" end_time="96:31:12" >
			</activity>
			<leg mode="car">
			</leg>
			<activity type="loaded" x="548221.4244695931" y="5601848.091734691" >
			</activity>
		</plan>

	</person>

<!-- ====================================================================== -->

	<person id="107055">
		<plan selected="yes">
			<activity type="loaded" x="474538.80369431945" y="5869792.275797231" end_time="24:40:36" >
			</activity>
			<leg mode="car">
			</leg>
			<activity type="loaded" x="399458.0123214949" y="5582265.634935736" >
			</activity>
		</plan>

	</person>

<!-- ====================================================================== -->

	<person id="107095">
		<plan selected="yes">
			<activity type="loaded" x="462226.46174999943" y="5883906.834003357" end_time="26:58:12" >
			</activity>
			<leg mode="car">
			</leg>
			<activity type="loaded" x="336931.07617431297" y="5545879.460704158" >
			</activity>
		</plan>

	</person>

<!-- ====================================================================== -->

	<person id="107213">
		<plan selected="yes">
			<activity type="loaded" x="461523.4896573086" y="5873378.559590549" end_time="126:54:12" >
			</activity>
			<leg mode="car">
			</leg>
			<activity type="loaded" x="514338.6082724498" y="5448705.037738929" >
			</activity>
		</plan>

	</person>
