<?xml version="1.0" encoding="utf-8"?>
<!DOCTYPE population SYSTEM "http://www.matsim.org/files/dtd/population_v6.dtd">

<population>



<!-- ====================================================================== -->

	<person id="0">
		<plan selected="yes">
			<activity type="ETruck_Start" x="432872.4394749152" y="5741945.576125754" end_time="11:00:00" >
			</activity>
			<leg mode="loaded">
			</leg>
			<activity type="ETruck_End" x="689850.0111775878" y="5747361.765205933" >
			</activity>
		</plan>

	</person>

<!-- ====================================================================== -->

	<person id="1">
		<plan selected="yes">
			<activity type="ETruck_Start" x="960262.6816912284" y="5432980.111044802" end_time="12:00:00" >
			</activity>
			<leg mode="unloaded">
			</leg>
			<activity type="ETruck_End" x="519736.8522828583" y="5423617.256530606" >
			</activity>
		</plan>

	</person>

<!-- ====================================================================== -->

	<person id="10">
		<plan selected="yes">
			<activity type="ETruck_Start" x="1246145.2720692195" y="5956576.918203924" end_time="18:00:00" >
			</activity>
			<leg mode="loaded">
			</leg>
			<activity type="ETruck_End" x="347541.4577280143" y="5704819.664614522" >
			</activity>
		</plan>

	</person>

<!-- ====================================================================== -->

	<person id="100">
		<plan selected="yes">
			<activity type="ETruck_Start" x="487657.82404045056" y="5588000.21594754" end_time="07:00:00" >
			</activity>
			<leg mode="loaded">
			</leg>
			<activity type="ETruck_End" x="485828.4538962617" y="5831876.633325926" >
			</activity>
		</plan>

	</person>

<!-- ====================================================================== -->

	<person id="1000">
		<plan selected="yes">
			<activity type="ETruck_Start" x="639773.8045191555" y="5560901.602891373" end_time="11:00:00" >
			</activity>
			<leg mode="unloaded">
			</leg>
			<activity type="ETruck_End" x="800926.1668818786" y="5823090.956626395" >
			</activity>
		</plan>

	</person>

<!-- ====================================================================== -->

	<person id="1001">
		<plan selected="yes">
			<activity type="ETruck_Start" x="709409.3099655688" y="5990110.479090172" end_time="20:00:00" >
			</activity>
			<leg mode="loaded">
			</leg>
			<activity type="ETruck_End" x="804373.9279921625" y="5716826.576328634" >
			</activity>
		</plan>

	</person>

<!-- ====================================================================== -->

	<person id="1002">
		<plan selected="yes">
			<activity type="ETruck_Start" x="682622.7917825228" y="5640494.592116168" end_time="16:00:00" >
			</activity>
			<leg mode="loaded">
			</leg>
			<activity type="ETruck_End" x="506903.0219139556" y="5332664.612655664" >
			</activity>
		</plan>

	</person>

<!-- ====================================================================== -->

	<person id="1003">
		<plan selected="yes">
			<activity type="ETruck_Start" x="356238.26075150527" y="5652352.134432935" end_time="04:00:00" >
			</activity>
			<leg mode="loaded">
			</leg>
			<activity type="ETruck_End" x="1433251.5579217817" y="5795524.137047927" >
			</activity>
		</plan>

	</person>

<!-- ====================================================================== -->

	<person id="1004">
		<plan selected="yes">
			<activity type="ETruck_Start" x="718129.3495582654" y="5018727.622304468" end_time="09:00:00" >
			</activity>
			<leg mode="loaded">
			</leg>
			<activity type="ETruck_End" x="515538.3320948584" y="5421063.113613592" >
			</activity>
		</plan>

	</person>

<!-- ====================================================================== -->

	<person id="1005">
		<plan selected="yes">
			<activity type="ETruck_Start" x="608260.6393236635" y="5845315.471608443" end_time="03:00:00" >
			</activity>
			<leg mode="loaded">
			</leg>
			<activity type="ETruck_End" x="1101655.0328521407" y="5875908.94911092" >
			</activity>
		</plan>

	</person>

<!-- ====================================================================== -->

	<person id="1006">
		<plan selected="yes">
			<activity type="ETruck_Start" x="465738.2342642364" y="5464597.436752127" end_time="07:00:00" >
			</activity>
			<leg mode="loaded">
			</leg>
			<activity type="ETruck_End" x="738952.6314393264" y="5530847.030405518" >
			</activity>
		</plan>

	</person>

<!-- ====================================================================== -->

	<person id="1007">
		<plan selected="yes">
			<activity type="ETruck_Start" x="620590.9314576713" y="5778380.737744875" end_time="16:00:00" >
			</activity>
			<leg mode="loaded">
			</leg>
			<activity type="ETruck_End" x="586006.8643766058" y="5317346.543586728" >
			</activity>
		</plan>

	</person>

<!-- ====================================================================== -->

	<person id="1008">
		<plan selected="yes">
			<activity type="ETruck_Start" x="700931.7054901381" y="5770294.99499798" end_time="09:00:00" >
			</activity>
			<leg mode="loaded">
			</leg>
			<activity type="ETruck_End" x="556662.9769410205" y="5592403.836760281" >
			</activity>
		</plan>

	</person>

<!-- ====================================================================== -->

	<person id="1009">
		<plan selected="yes">
			<activity type="ETruck_Start" x="866171.3655313891" y="5641305.593840456" end_time="16:00:00" >
			</activity>
			<leg mode="loaded">
			</leg>
			<activity type="ETruck_End" x="624401.0163398613" y="5378996.273098774" >
			</activity>
		</plan>

	</person>

<!-- ====================================================================== -->

	<person id="101">
		<plan selected="yes">
			<activity type="ETruck_Start" x="515717.1114779369" y="5344135.033178135" end_time="22:00:00" >
			</activity>
			<leg mode="loaded">
			</leg>
			<activity type="ETruck_End" x="572276.8967801584" y="5836179.089107506" >
			</activity>
		</plan>

	</person>

<!-- ====================================================================== -->

	<person id="1010">
		<plan selected="yes">
			<activity type="ETruck_Start" x="355146.94860900746" y="5762528.040505192" end_time="04:00:00" >
			</activity>
			<leg mode="unloaded">
			</leg>
			<activity type="ETruck_End" x="826771.417636317" y="5811441.774704251" >
			</activity>
		</plan>

	</person>

<!-- ====================================================================== -->

	<person id="1011">
		<plan selected="yes">
			<activity type="ETruck_Start" x="566231.3661792667" y="5761047.469116067" end_time="08:00:00" >
			</activity>
			<leg mode="loaded">
			</leg>
			<activity type="ETruck_End" x="347709.7006598561" y="5660168.323664882" >
			</activity>
		</plan>

	</person>

<!-- ====================================================================== -->

	<person id="1012">
		<plan selected="yes">
			<activity type="ETruck_Start" x="760884.5333465995" y="5419096.341069018" end_time="13:00:00" >
			</activity>
			<leg mode="loaded">
			</leg>
			<activity type="ETruck_End" x="374140.2007464041" y="5668311.213926867" >
			</activity>
		</plan>

	</person>

<!-- ====================================================================== -->

	<person id="1013">
		<plan selected="yes">
			<activity type="ETruck_Start" x="936893.4864353036" y="5326824.838578479" end_time="20:00:00" >
			</activity>
			<leg mode="loaded">
			</leg>
			<activity type="ETruck_End" x="713028.8102061495" y="5498127.555846126" >
			</activity>
		</plan>

	</person>

<!-- ====================================================================== -->

	<person id="1014">
		<plan selected="yes">
			<activity type="ETruck_Start" x="409429.09120051016" y="5703621.927763061" end_time="04:00:00" >
			</activity>
			<leg mode="loaded">
			</leg>
			<activity type="ETruck_End" x="960262.6816912284" y="5432980.111044802" >
			</activity>
		</plan>

	</person>

<!-- ====================================================================== -->

	<person id="1015">
		<plan selected="yes">
			<activity type="ETruck_Start" x="559299.9474073852" y="5936573.60719081" end_time="06:00:00" >
			</activity>
			<leg mode="loaded">
			</leg>
			<activity type="ETruck_End" x="375389.6927641692" y="5709501.423654496" >
			</activity>
		</plan>

	</person>

<!-- ====================================================================== -->

	<person id="1016">
		<plan selected="yes">
			<activity type="ETruck_Start" x="345649.8748344504" y="5457310.960059045" end_time="08:00:00" >
			</activity>
			<leg mode="loaded">
			</leg>
			<activity type="ETruck_End" x="92810.77706783968" y="5517937.464736545" >
			</activity>
		</plan>

	</person>

<!-- ====================================================================== -->

	<person id="1017">
		<plan selected="yes">
			<activity type="ETruck_Start" x="561112.9908039301" y="5936993.764337938" end_time="16:00:00" >
			</activity>
			<leg mode="loaded">
			</leg>
			<activity type="ETruck_End" x="725227.9907032049" y="5689308.466588964" >
			</activity>
		</plan>

	</person>

<!-- ====================================================================== -->

	<person id="1018">
		<plan selected="yes">
			<activity type="ETruck_Start" x="846319.3774452294" y="5894544.1858759895" end_time="05:00:00" >
			</activity>
			<leg mode="loaded">
			</leg>
			<activity type="ETruck_End" x="570850.525700491" y="5964139.879864351" >
			</activity>
		</plan>

	</person>

<!-- ====================================================================== -->

	<person id="1019">
		<plan selected="yes">
			<activity type="ETruck_Start" x="395939.0588097215" y="5689345.6849503135" end_time="01:00:00" >
			</activity>
			<leg mode="loaded">
			</leg>
			<activity type="ETruck_End" x="419940.8684798406" y="5267055.34242968" >
			</activity>
		</plan>

	</person>

<!-- ====================================================================== -->

	<person id="102">
		<plan selected="yes">
			<activity type="ETruck_Start" x="482931.6952895541" y="5856281.085586608" end_time="06:00:00" >
			</activity>
			<leg mode="unloaded">
			</leg>
			<activity type="ETruck_End" x="802000.5748470054" y="5803818.912222642" >
			</activity>
		</plan>

	</person>

<!-- ====================================================================== -->

	<person id="1020">
		<plan selected="yes">
			<activity type="ETruck_Start" x="-240665.3736420574" y="6363383.616091684" end_time="18:00:00" >
			</activity>
			<leg mode="loaded">
			</leg>
			<activity type="ETruck_End" x="428957.1731851507" y="5443272.586840255" >
			</activity>
		</plan>

	</person>

<!-- ====================================================================== -->

	<person id="1021">
		<plan selected="yes">
			<activity type="ETruck_Start" x="562090.5135013065" y="5936239.387454693" end_time="07:00:00" >
			</activity>
			<leg mode="unloaded">
			</leg>
			<activity type="ETruck_End" x="1349609.9465604117" y="5669394.836974437" >
			</activity>
		</plan>

	</person>

<!-- ====================================================================== -->

	<person id="1022">
		<plan selected="yes">
			<activity type="ETruck_Start" x="816368.4763661111" y="5791788.477294981" end_time="07:00:00" >
			</activity>
			<leg mode="loaded">
			</leg>
			<activity type="ETruck_End" x="460681.0189678155" y="5424846.66228019" >
			</activity>
		</plan>

	</person>

<!-- ====================================================================== -->

	<person id="1023">
		<plan selected="yes">
			<activity type="ETruck_Start" x="839546.8510357873" y="5876700.275522116" end_time="05:00:00" >
			</activity>
			<leg mode="loaded">
			</leg>
			<activity type="ETruck_End" x="865910.5592809988" y="5664491.642446587" >
			</activity>
		</plan>

	</person>

<!-- ====================================================================== -->

	<person id="1024">
		<plan selected="yes">
			<activity type="ETruck_Start" x="620663.9312659118" y="5644360.977838076" end_time="06:00:00" >
			</activity>
			<leg mode="unloaded">
			</leg>
			<activity type="ETruck_End" x="1025641.3008867338" y="5187063.597194535" >
			</activity>
		</plan>

	</person>

<!-- ====================================================================== -->

	<person id="1025">
		<plan selected="yes">
			<activity type="ETruck_Start" x="484870.2155740248" y="5416550.85134637" end_time="08:00:00" >
			</activity>
			<leg mode="loaded">
			</leg>
			<activity type="ETruck_End" x="836305.5535600528" y="5665284.39290854" >
			</activity>
		</plan>

	</person>

<!-- ====================================================================== -->

	<person id="1026">
		<plan selected="yes">
			<activity type="ETruck_Start" x="381165.8627920302" y="5913224.068614475" end_time="10:00:00" >
			</activity>
			<leg mode="loaded">
			</leg>
			<activity type="ETruck_End" x="530353.4214972723" y="5361039.009222517" >
			</activity>
		</plan>

	</person>

<!-- ====================================================================== -->

	<person id="1027">
		<plan selected="yes">
			<activity type="ETruck_Start" x="333388.6667950965" y="5517814.751103072" end_time="04:00:00" >
			</activity>
			<leg mode="loaded">
			</leg>
			<activity type="ETruck_End" x="662278.3062226523" y="5650163.595396174" >
			</activity>
		</plan>

	</person>

<!-- ====================================================================== -->

	<person id="1028">
		<plan selected="yes">
			<activity type="ETruck_Start" x="625228.14229027" y="5459591.918733905" end_time="06:00:00" >
			</activity>
			<leg mode="unloaded">
			</leg>
			<activity type="ETruck_End" x="579000.8553273149" y="5996071.002597253" >
			</activity>
		</plan>

	</person>

<!-- ====================================================================== -->

	<person id="1029">
		<plan selected="yes">
			<activity type="ETruck_Start" x="541244.4032125211" y="5857108.006266288" end_time="19:00:00" >
			</activity>
			<leg mode="loaded">
			</leg>
			<activity type="ETruck_End" x="346385.1544081241" y="5688875.185182796" >
			</activity>
		</plan>

	</person>

<!-- ====================================================================== -->

	<person id="103">
		<plan selected="yes">
			<activity type="ETruck_Start" x="724705.026751843" y="5729142.107312574" end_time="23:00:00" >
			</activity>
			<leg mode="loaded">
			</leg>
			<activity type="ETruck_End" x="461638.6047433076" y="5155040.373238352" >
			</activity>
		</plan>

	</person>

<!-- ====================================================================== -->

	<person id="1030">
		<plan selected="yes">
			<activity type="ETruck_Start" x="724066.932077499" y="5669013.138351942" end_time="13:00:00" >
			</activity>
			<leg mode="unloaded">
			</leg>
			<activity type="ETruck_End" x="482935.9697984395" y="5380307.469942497" >
			</activity>
		</plan>

	</person>

<!-- ====================================================================== -->

	<person id="1031">
		<plan selected="yes">
			<activity type="ETruck_Start" x="346392.6784896928" y="5681310.230560896" end_time="20:00:00" >
			</activity>
			<leg mode="loaded">
			</leg>
			<activity type="ETruck_End" x="436359.933906776" y="5453648.34712621" >
			</activity>
		</plan>

	</person>

<!-- ====================================================================== -->

	<person id="1032">
		<plan selected="yes">
			<activity type="ETruck_Start" x="479745.1553227676" y="5696274.727263235" end_time="17:00:00" >
			</activity>
			<leg mode="loaded">
			</leg>
			<activity type="ETruck_End" x="557456.8122515207" y="5937724.171630653" >
			</activity>
		</plan>

	</person>

<!-- ====================================================================== -->

	<person id="1033">
		<plan selected="yes">
			<activity type="ETruck_Start" x="638843.1763503738" y="5637980.902001158" end_time="23:00:00" >
			</activity>
			<leg mode="loaded">
			</leg>
			<activity type="ETruck_End" x="367708.2857944192" y="5482817.216033277" >
			</activity>
		</plan>

	</person>

<!-- ====================================================================== -->

	<person id="1034">
		<plan selected="yes">
			<activity type="ETruck_Start" x="466856.2358075509" y="5465814.533843618" end_time="18:00:00" >
			</activity>
			<leg mode="loaded">
			</leg>
			<activity type="ETruck_End" x="726671.6389346644" y="5462029.495514008" >
			</activity>
		</plan>

	</person>

<!-- ====================================================================== -->

	<person id="1035">
		<plan selected="yes">
			<activity type="ETruck_Start" x="357702.2227349015" y="5666748.890642947" end_time="14:00:00" >
			</activity>
			<leg mode="unloaded">
			</leg>
			<activity type="ETruck_End" x="607197.7058759864" y="5942729.717927858" >
			</activity>
		</plan>

	</person>

<!-- ====================================================================== -->

	<person id="1036">
		<plan selected="yes">
			<activity type="ETruck_Start" x="826952.8902636808" y="5671797.883463726" end_time="15:00:00" >
			</activity>
			<leg mode="loaded">
			</leg>
			<activity type="ETruck_End" x="480413.841817136" y="5550952.20320697" >
			</activity>
		</plan>

	</person>

<!-- ====================================================================== -->

	<person id="1037">
		<plan selected="yes">
			<activity type="ETruck_Start" x="523682.9694899439" y="5555601.444661696" end_time="23:00:00" >
			</activity>
			<leg mode="loaded">
			</leg>
			<activity type="ETruck_End" x="431876.9273437024" y="5334656.405331058" >
			</activity>
		</plan>

	</person>

<!-- ====================================================================== -->

	<person id="1038">
		<plan selected="yes">
			<activity type="ETruck_Start" x="532134.826296577" y="5979180.385645511" end_time="13:00:00" >
			</activity>
			<leg mode="loaded">
			</leg>
			<activity type="ETruck_End" x="393193.952439481" y="5663314.088174356" >
			</activity>
		</plan>

	</person>

<!-- ====================================================================== -->

	<person id="1039">
		<plan selected="yes">
			<activity type="ETruck_Start" x="-627360.7707509585" y="5908322.432529462" end_time="18:00:00" >
			</activity>
			<leg mode="loaded">
			</leg>
			<activity type="ETruck_End" x="431436.268015429" y="5360230.1975549655" >
			</activity>
		</plan>

	</person>

<!-- ====================================================================== -->

	<person id="104">
		<plan selected="yes">
			<activity type="ETruck_Start" x="325641.04418869526" y="5674494.967327341" end_time="18:00:00" >
			</activity>
			<leg mode="loaded">
			</leg>
			<activity type="ETruck_End" x="750168.2477615123" y="5342406.403992723" >
			</activity>
		</plan>

	</person>

<!-- ====================================================================== -->

	<person id="1040">
		<plan selected="yes">
			<activity type="ETruck_Start" x="560080.9654715253" y="5360820.717592525" end_time="18:00:00" >
			</activity>
			<leg mode="loaded">
			</leg>
			<activity type="ETruck_End" x="425244.3061681033" y="5938505.863531509" >
			</activity>
		</plan>

	</person>

<!-- ====================================================================== -->

	<person id="1041">
		<plan selected="yes">
			<activity type="ETruck_Start" x="833632.9466813018" y="4777263.500271112" end_time="13:00:00" >
			</activity>
			<leg mode="loaded">
			</leg>
			<activity type="ETruck_End" x="694164.7038629988" y="5333591.874326619" >
			</activity>
		</plan>

	</person>

<!-- ====================================================================== -->

	<person id="1042">
		<plan selected="yes">
			<activity type="ETruck_Start" x="573807.1248593107" y="6015390.709466127" end_time="14:00:00" >
			</activity>
			<leg mode="unloaded">
			</leg>
			<activity type="ETruck_End" x="268035.4197596848" y="5728365.898849713" >
			</activity>
		</plan>

	</person>

<!-- ====================================================================== -->

	<person id="1043">
		<plan selected="yes">
			<activity type="ETruck_Start" x="852149.4649547272" y="5748641.814152491" end_time="22:00:00" >
			</activity>
			<leg mode="loaded">
			</leg>
			<activity type="ETruck_End" x="667054.9468011073" y="5340884.069383824" >
			</activity>
		</plan>

	</person>

<!-- ====================================================================== -->

	<person id="1044">
		<plan selected="yes">
			<activity type="ETruck_Start" x="362673.8299373328" y="5782299.163948305" end_time="09:00:00" >
			</activity>
			<leg mode="loaded">
			</leg>
			<activity type="ETruck_End" x="608999.0672277012" y="5862419.392090639" >
			</activity>
		</plan>

	</person>

<!-- ====================================================================== -->

	<person id="1045">
		<plan selected="yes">
			<activity type="ETruck_Start" x="-155038.5803219889" y="4776574.896660359" end_time="21:00:00" >
			</activity>
			<leg mode="loaded">
			</leg>
			<activity type="ETruck_End" x="467535.6879762127" y="5423973.179526148" >
			</activity>
		</plan>

	</person>

<!-- ====================================================================== -->

	<person id="1046">
		<plan selected="yes">
			<activity type="ETruck_Start" x="561092.403330348" y="5943067.629693195" end_time="10:00:00" >
			</activity>
			<leg mode="loaded">
			</leg>
			<activity type="ETruck_End" x="897612.7057035766" y="5720771.953735239" >
			</activity>
		</plan>

	</person>

<!-- ====================================================================== -->

	<person id="1047">
		<plan selected="yes">
			<activity type="ETruck_Start" x="739185.4221481723" y="5701400.78506457" end_time="10:00:00" >
			</activity>
			<leg mode="loaded">
			</leg>
			<activity type="ETruck_End" x="342463.24385550886" y="5700987.770896885" >
			</activity>
		</plan>

	</person>

<!-- ====================================================================== -->

	<person id="1048">
		<plan selected="yes">
			<activity type="ETruck_Start" x="579716.904176681" y="5954684.881137999" end_time="08:00:00" >
			</activity>
			<leg mode="loaded">
			</leg>
			<activity type="ETruck_End" x="475835.7261140378" y="5521229.151025965" >
			</activity>
		</plan>

	</person>

<!-- ====================================================================== -->

	<person id="1049">
		<plan selected="yes">
			<activity type="ETruck_Start" x="566292.7754458224" y="5589310.45520451" end_time="11:00:00" >
			</activity>
			<leg mode="loaded">
			</leg>
			<activity type="ETruck_End" x="660616.0755487165" y="5296637.458460927" >
			</activity>
		</plan>

	</person>

<!-- ====================================================================== -->

	<person id="105">
		<plan selected="yes">
			<activity type="ETruck_Start" x="577435.6191555383" y="5763868.340716968" end_time="13:00:00" >
			</activity>
			<leg mode="unloaded">
			</leg>
			<activity type="ETruck_End" x="346563.25831485324" y="5682594.030740362" >
			</activity>
		</plan>

	</person>

<!-- ====================================================================== -->

	<person id="1050">
		<plan selected="yes">
			<activity type="ETruck_Start" x="1282660.5287641208" y="6272039.4744116925" end_time="21:00:00" >
			</activity>
			<leg mode="unloaded">
			</leg>
			<activity type="ETruck_End" x="803424.286990283" y="6034530.844027189" >
			</activity>
		</plan>

	</person>

<!-- ====================================================================== -->

	<person id="1051">
		<plan selected="yes">
			<activity type="ETruck_Start" x="807664.3073338293" y="5409104.132461798" end_time="15:00:00" >
			</activity>
			<leg mode="loaded">
			</leg>
			<activity type="ETruck_End" x="618362.5377877932" y="5810050.938070471" >
			</activity>
		</plan>

	</person>

<!-- ====================================================================== -->

	<person id="1052">
		<plan selected="yes">
			<activity type="ETruck_Start" x="577923.197449041" y="5758701.095165925" end_time="11:00:00" >
			</activity>
			<leg mode="loaded">
			</leg>
			<activity type="ETruck_End" x="780195.3128467305" y="5631210.633349574" >
			</activity>
		</plan>

	</person>

<!-- ====================================================================== -->

	<person id="1053">
		<plan selected="yes">
			<activity type="ETruck_Start" x="459367.6412689676" y="5478811.538106903" end_time="18:00:00" >
			</activity>
			<leg mode="loaded">
			</leg>
			<activity type="ETruck_End" x="690455.2586959114" y="5699773.753787302" >
			</activity>
		</plan>

	</person>

<!-- ====================================================================== -->

	<person id="1054">
		<plan selected="yes">
			<activity type="ETruck_Start" x="711503.4790341002" y="5341062.846785005" end_time="11:00:00" >
			</activity>
			<leg mode="loaded">
			</leg>
			<activity type="ETruck_End" x="351775.4475425164" y="5584347.080524909" >
			</activity>
		</plan>

	</person>

<!-- ====================================================================== -->

	<person id="1055">
		<plan selected="yes">
			<activity type="ETruck_Start" x="530217.1304020565" y="5739443.656940777" end_time="14:00:00" >
			</activity>
			<leg mode="loaded">
			</leg>
			<activity type="ETruck_End" x="194256.6774637621" y="5452359.008110477" >
			</activity>
		</plan>

	</person>

<!-- ====================================================================== -->

	<person id="1056">
		<plan selected="yes">
			<activity type="ETruck_Start" x="525822.7961307594" y="5733460.774855118" end_time="21:00:00" >
			</activity>
			<leg mode="unloaded">
			</leg>
			<activity type="ETruck_End" x="288395.9002590057" y="5897737.393629238" >
			</activity>
		</plan>

	</person>

<!-- ====================================================================== -->

	<person id="1057">
		<plan selected="yes">
			<activity type="ETruck_Start" x="509983.2646771694" y="5418478.05496668" end_time="09:00:00" >
			</activity>
			<leg mode="loaded">
			</leg>
			<activity type="ETruck_End" x="358037.11289483553" y="5654151.20226998" >
			</activity>
		</plan>

	</person>

<!-- ====================================================================== -->

	<person id="1058">
		<plan selected="yes">
			<activity type="ETruck_Start" x="406126.2031515375" y="5838936.845550267" end_time="18:00:00" >
			</activity>
			<leg mode="loaded">
			</leg>
			<activity type="ETruck_End" x="570739.9162102109" y="5374091.970550286" >
			</activity>
		</plan>

	</person>

<!-- ====================================================================== -->

	<person id="1059">
		<plan selected="yes">
			<activity type="ETruck_Start" x="797598.2076813474" y="5894223.83560494" end_time="16:00:00" >
			</activity>
			<leg mode="unloaded">
			</leg>
			<activity type="ETruck_End" x="704484.4451593065" y="5366133.083451521" >
			</activity>
		</plan>

	</person>

<!-- ====================================================================== -->

	<person id="106">
		<plan selected="yes">
			<activity type="ETruck_Start" x="520381.05746262654" y="5459888.346981198" end_time="13:00:00" >
			</activity>
			<leg mode="loaded">
			</leg>
			<activity type="ETruck_End" x="343936.38456339855" y="5668188.602097312" >
			</activity>
		</plan>

	</person>

<!-- ====================================================================== -->

	<person id="1060">
		<plan selected="yes">
			<activity type="ETruck_Start" x="443742.3385133487" y="5420182.682811537" end_time="12:00:00" >
			</activity>
			<leg mode="loaded">
			</leg>
			<activity type="ETruck_End" x="1216265.2429826255" y="5844198.617956503" >
			</activity>
		</plan>

	</person>

<!-- ====================================================================== -->

	<person id="1061">
		<plan selected="yes">
			<activity type="ETruck_Start" x="587636.1434056332" y="5405705.546468452" end_time="12:00:00" >
			</activity>
			<leg mode="loaded">
			</leg>
			<activity type="ETruck_End" x="148070.34731502004" y="4874694.683139779" >
			</activity>
		</plan>

	</person>

<!-- ====================================================================== -->

	<person id="1062">
		<plan selected="yes">
			<activity type="ETruck_Start" x="91054.68550748297" y="5030285.377915916" end_time="13:00:00" >
			</activity>
			<leg mode="loaded">
			</leg>
			<activity type="ETruck_End" x="719784.2876752403" y="5714511.215084487" >
			</activity>
		</plan>

	</person>

<!-- ====================================================================== -->

	<person id="1063">
		<plan selected="yes">
			<activity type="ETruck_Start" x="562565.0992010267" y="5937199.612359713" end_time="10:00:00" >
			</activity>
			<leg mode="loaded">
			</leg>
			<activity type="ETruck_End" x="420058.22121597297" y="5744839.898003204" >
			</activity>
		</plan>

	</person>

<!-- ====================================================================== -->

	<person id="1064">
		<plan selected="yes">
			<activity type="ETruck_Start" x="746993.8564472175" y="5621054.523376781" end_time="15:00:00" >
			</activity>
			<leg mode="loaded">
			</leg>
			<activity type="ETruck_End" x="387255.9483612309" y="5586285.698297204" >
			</activity>
		</plan>

	</person>

<!-- ====================================================================== -->

	<person id="1065">
		<plan selected="yes">
			<activity type="ETruck_Start" x="-158174.77470435132" y="4730367.113216344" end_time="05:00:00" >
			</activity>
			<leg mode="loaded">
			</leg>
			<activity type="ETruck_End" x="361032.857135905" y="5642170.5061625615" >
			</activity>
		</plan>

	</person>

<!-- ====================================================================== -->

	<person id="1066">
		<plan selected="yes">
			<activity type="ETruck_Start" x="293293.21362515225" y="5827509.586462375" end_time="14:00:00" >
			</activity>
			<leg mode="loaded">
			</leg>
			<activity type="ETruck_End" x="611228.0444636279" y="5971631.947532496" >
			</activity>
		</plan>

	</person>
